examples/feeders/17_SE001_1/012_cargasBT_1_1.dss
New Load.BT_1701688_M1 bus1=UC1701688.1.4 phases=1 conn=Wye model=2 kv=0.219393102 kw=0.209096 pf=0.92 daily=RE7_DU status=variable vmaxpu=1.5 vminpu=0.92
New Load.BT_1701688_M2 bus1=UC1701688.1.4 phases=1 conn=Wye model=3 kv=0.219393102 kw=0.209096 pf=0.92 daily=RE7_DU status=variable vmaxpu=1.5 vminpu=0.92
New Load.BT_1704548_M1 bus1=UC1704548.1.2.4 phases=1 conn=Delta model=2 kv=0.38 kw=0.082095 pf=0.92 daily=RE4_DU status=variable vmaxpu=1.5 vminpu=0.92
New Load.BT_1704548_M2 bus1=UC1704548.1.2.4 phases=1 conn=Delta model=3 kv=0.38 kw=0.082095 pf=0.92 daily=RE4_DU status=variable vmaxpu=1.5 vminpu=0.92
New Load.BT_1704939_M1 bus1=UC1704939.1.2.3.4 phases=3 conn=Delta model=2 kv=0.38 kw=3.029256 pf=0.92 daily=CO5_DU status=variable vmaxpu=1.5 vminpu=0.92
New Load.BT_1704939_M2 bus1=UC1704939.1.2.3.4 phases=3 conn=Delta model=3 kv=0.38 kw=3.029256 pf=0.92 daily=CO5_DU status=variable vmaxpu=1.5 vminpu=0.92
New Load.BT_1705033_M1 bus1=UC1705033.1.2.3.4 phases=3 conn=Delta model=2 kv=0.38 kw=3.209378 pf=0.92 daily=PP1_DU status=variable vmaxpu=1.5 vminpu=0.92
New Load.BT_1705033_M2 bus1=UC1705033.1.2.3.4 phases=3 conn=Delta model=3 kv=0.38 kw=3.209378 pf=0.92 daily=PP1_DU status=variable vmaxpu=1.5 vminpu=0.92
New Load.BT_1714257_M1 bus1=UC1714257.3.4 phases=1 conn=Wye model=2 kv=0.219393102 kw=0.107641 pf=0.92 daily=RE8_DU status=variable vmaxpu=1.5 vminpu=0.92
New Load.BT_1714257_M2 bus1=UC1714257.3.4 phases=1 conn=Wye model=3 kv=0.219393102 kw=0.107641 pf=0.92 daily=RE8_DU status=variable vmaxpu=1.5 vminpu=0.92
New Load.BT_1716350_M1 bus1=UC1716350.1.2.3.4 phases=3 conn=Delta model=2 kv=0.38 kw=0.441754 pf=0.92 daily=PP3_DU status=variable vmaxpu=1.5 vminpu=0.92
New Load.BT_1716350_M2 bus1=UC1716350.1.2.3.4 phases=3 conn=Delta model=3 kv=0.38 kw=0.441754 pf=0.92 daily=PP3_DU status=variable vmaxpu=1.5 vminpu=0.92
New Load.BT_1721086_M1 bus1=UC1721086.1.2.3.4 phases=3 conn=Delta model=2 kv=0.38 kw=1.6897585 pf=0.92 daily=PP3_DU status=variable vmaxpu=1.5 vminpu=0.92
New Load.BT_1721086_M2 bus1=UC1721086.1.2.3.4 phases=3 conn=Delta model=3 kv=0.38 kw=1.6897585 pf=0.92 daily=PP3_DU status=variable vmaxpu=1.5 vminpu=0.92
New Load.BT_1728596_M1 bus1=UC1728596.1.2.3.4 phases=3 conn=Delta model=2 kv=0.38 kw=0.4820835 pf=0.92 daily=RE7_DU status=variable vmaxpu=1.5 vminpu=0.92
New Load.BT_1728596_M2 bus1=UC1728596.1.2.3.4 phases=3 conn=Delta model=3 kv=0.38 kw=0.4820835 pf=0.92 daily=RE7_DU status=variable vmaxpu=1.5 vminpu=0.92
New Load.BT_1729205_M1 bus1=UC1729205.1.2.3.4 phases=3 conn=Delta model=2 kv=0.38 kw=3.583854 pf=0.92 daily=CO2_DU status=variable vmaxpu=1.5 vminpu=0.92
New Load.BT_1729205_M2 bus1=UC1729205.1.2.3.4 phases=3 conn=Delta model=3 kv=0.38 kw=3.583854 pf=0.92 daily=CO2_DU status=variable vmaxpu=1.5 vminpu=0.92
New Load.BT_1729356_M1 bus1=UC1729356.1.2.3.4 phases=3 conn=Delta model=2 kv=0.38 kw=0.1485645 pf=0.92 daily=CO4_DU status=variable vmaxpu=1.5 vminpu=0.92
New Load.BT_1729356_M2 bus1=UC1729356.1.2.3.4 phases=3 conn=Delta model=3 kv=0.38 kw=0.1485645 pf=0.92 daily=CO4_DU status=variable vmaxpu=1.5 vminpu=0.92
New Load.BT_1729798_M1 bus1=UC1729798.1.2.3.4 phases=3 conn=Delta model=2 kv=0.38 kw=0.605082 pf=0.92 daily=RE2_DU status=variable vmaxpu=1.5 vminpu=0.92
New Load.BT_1729798_M2 bus1=UC1729798.1.2.3.4 phases=3 conn=Delta model=3 kv=0.38 kw=0.605082 pf=0.92 daily=RE2_DU status=variable vmaxpu=1.5 vminpu=0.92
New Load.BT_1730242_M1 bus1=UC1730242.3.4 phases=1 conn=Wye model=2 kv=0.219393102 kw=0.3532145 pf=0.92 daily=RE6_DU status=variable vmaxpu=1.5 vminpu=0.92
New Load.BT_1730242_M2 bus1=UC1730242.3.4 phases=1 conn=Wye model=3 kv=0.219393102 kw=0.3532145 pf=0.92 daily=RE6_DU status=variable vmaxpu=1.5 vminpu=0.92
New Load.BT_1730451_M1 bus1=UC1730451.2.4 phases=1 conn=Wye model=2 kv=0.219393102 kw=0.66542 pf=0.92 daily=RE8_DU status=variable vmaxpu=1.5 vminpu=0.92
New Load.BT_1730451_M2 bus1=UC1730451.2.4 phases=1 conn=Wye model=3 kv=0.219393102 kw=0.66542 pf=0.92 daily=RE8_DU status=variable vmaxpu=1.5 vminpu=0.92
New Load.BT_1734100_M1 bus1=UC1734100.1.2.3.4 phases=3 conn=Delta model=2 kv=0.38 kw=0.7518595 pf=0.92 daily=RE8_DU status=variable vmaxpu=1.5 vminpu=0.92
New Load.BT_1734100_M2 bus1=UC1734100.1.2.3.4 phases=3 conn=Delta model=3 kv=0.38 kw=0.7518595 pf=0.92 daily=RE8_DU status=variable vmaxpu=1.5 vminpu=0.92
New Load.BT_1739054_M1 bus1=UC1739054.1.2.3.4 phases=3 conn=Delta model=2 kv=0.38 kw=0 pf=0.92 daily=PP5_DU status=variable vmaxpu=1.5 vminpu=0.92
New Load.BT_1739054_M2 bus1=UC1739054.1.2.3.4 phases=3 conn=Delta model=3 kv=0.38 kw=0 pf=0.92 daily=PP5_DU status=variable vmaxpu=1.5 vminpu=0.92
New Load.BT_IP1027_M1 bus1=BT345063.1.4 phases=1 conn=Wye model=2 kv=0.219393102 kw=0.070043 pf=0.92 daily=IP1_DU status=variable vmaxpu=1.5 vminpu=0.92
New Load.BT_IP1027_M2 bus1=BT345063.1.4 phases=1 conn=Wye model=3 kv=0.219393102 kw=0.070043 pf=0.92 daily=IP1_DU status=variable vmaxpu=1.5 vminpu=0.92
New Load.BT_IP1042_M1 bus1=BT279301.1.4 phases=1 conn=Wye model=2 kv=0.219393102 kw=0.1400865 pf=0.92 daily=IP1_DU status=variable vmaxpu=1.5 vminpu=0.92
New Load.BT_IP1042_M2 bus1=BT279301.1.4 phases=1 conn=Wye model=3 kv=0.219393102 kw=0.1400865 pf=0.92 daily=IP1_DU status=variable vmaxpu=1.5 vminpu=0.92
New Load.BT_IP1043_M1 bus1=BT279311.1.4 phases=1 conn=Wye model=2 kv=0.219393102 kw=0.1400865 pf=0.92 daily=IP1_DU status=variable vmaxpu=1.5 vminpu=0.92
New Load.BT_IP1043_M2 bus1=BT279311.1.4 phases=1 conn=Wye model=3 kv=0.219393102 kw=0.1400865 pf=0.92 daily=IP1_DU status=variable vmaxpu=1.5 vminpu=0.92
New Load.BT_IP1044_M1 bus1=ET17_1609.1.4 phases=1 conn=Wye model=2 kv=0.219393102 kw=0.1400865 pf=0.92 daily=IP1_DU status=variable vmaxpu=1.5 vminpu=0.92
New Load.BT_IP1044_M2 bus1=ET17_1609.1.4 phases=1 conn=Wye model=3 kv=0.219393102 kw=0.1400865 pf=0.92 daily=IP1_DU status=variable vmaxpu=1.5 vminpu=0.92
New Load.BT_IP1045_M1 bus1=BT279331.1.4 phases=1 conn=Wye model=2 kv=0.219393102 kw=0.1400865 pf=0.92 daily=IP1_DU status=variable vmaxpu=1.5 vminpu=0.92
New Load.BT_IP1045_M2 bus1=BT279331.1.4 phases=1 conn=Wye model=3 kv=0.219393102 kw=0.1400865 pf=0.92 daily=IP1_DU status=variable vmaxpu=1.5 vminpu=0.92
New Load.BT_IP1046_M1 bus1=BT279202.1.4 phases=1 conn=Wye model=2 kv=0.219393102 kw=0.070043 pf=0.92 daily=IP1_DU status=variable vmaxpu=1.5 vminpu=0.92
New Load.BT_IP1046_M2 bus1=BT279202.1.4 phases=1 conn=Wye model=3 kv=0.219393102 kw=0.070043 pf=0.92 daily=IP1_DU status=variable vmaxpu=1.5 vminpu=0.92
New Load.BT_IP1047_M1 bus1=BT279191.1.4 phases=1 conn=Wye model=2 kv=0.219393102 kw=0.1400865 pf=0.92 daily=IP1_DU status=variable vmaxpu=1.5 vminpu=0.92
New Load.BT_IP1047_M2 bus1=BT279191.1.4 phases=1 conn=Wye model=3 kv=0.219393102 kw=0.1400865 pf=0.92 daily=IP1_DU status=variable vmaxpu=1.5 vminpu=0.92
New Load.BT_IP1199_M1 bus1=BT279351.1.4 phases=1 conn=Wye model=2 kv=0.219393102 kw=0.070043 pf=0.92 daily=IP1_DU status=variable vmaxpu=1.5 vminpu=0.92
New Load.BT_IP1199_M2 bus1=BT279351.1.4 phases=1 conn=Wye model=3 kv=0.219393102 kw=0.070043 pf=0.92 daily=IP1_DU status=variable vmaxpu=1.5 vminpu=0.92
New Load.BT_IP1206_M1 bus1=BT329331.1.4 phases=1 conn=Wye model=2 kv=0.219393102 kw=0.070043 pf=0.92 daily=IP1_DU status=variable vmaxpu=1.5 vminpu=0.92
New Load.BT_IP1206_M2 bus1=BT329331.1.4 phases=1 conn=Wye model=3 kv=0.219393102 kw=0.070043 pf=0.92 daily=IP1_DU status=variable vmaxpu=1.5 vminpu=0.92
New Load.BT_IP1207_M1 bus1=BT267351.1.4 phases=1 conn=Wye model=2 kv=0.219393102 kw=0.1400865 pf=0.92 daily=IP1_DU status=variable vmaxpu=1.5 vminpu=0.92
New Load.BT_IP1207_M2 bus1=BT267351.1.4 phases=1 conn=Wye model=3 kv=0.219393102 kw=0.1400865 pf=0.92 daily=IP1_DU status=variable vmaxpu=1.5 vminpu=0.92
New Load.BT_IP1208_M1 bus1=BT279342.1.4 phases=1 conn=Wye model=2 kv=0.219393102 kw=0.070043 pf=0.92 daily=IP1_DU status=variable vmaxpu=1.5 vminpu=0.92
New Load.BT_IP1208_M2 bus1=BT279342.1.4 phases=1 conn=Wye model=3 kv=0.219393102 kw=0.070043 pf=0.92 daily=IP1_DU status=variable vmaxpu=1.5 vminpu=0.92
New Load.BT_IP1209_M1 bus1=BT279261.1.4 phases=1 conn=Wye model=2 kv=0.219393102 kw=0.070043 pf=0.92 daily=IP1_DU status=variable vmaxpu=1.5 vminpu=0.92
New Load.BT_IP1209_M2 bus1=BT279261.1.4 phases=1 conn=Wye model=3 kv=0.219393102 kw=0.070043 pf=0.92 daily=IP1_DU status=variable vmaxpu=1.5 vminpu=0.92
New Load.BT_IP1210_M1 bus1=BT279271.1.4 phases=1 conn=Wye model=2 kv=0.219393102 kw=0.070043 pf=0.92 daily=IP1_DU status=variable vmaxpu=1.5 vminpu=0.92
New Load.BT_IP1210_M2 bus1=BT279271.1.4 phases=1 conn=Wye model=3 kv=0.219393102 kw=0.070043 pf=0.92 daily=IP1_DU status=variable vmaxpu=1.5 vminpu=0.92
New Load.BT_IP5609_M1 bus1=BT279291.1.4 phases=1 conn=Wye model=2 kv=0.219393102 kw=0.070043 pf=0.92 daily=IP1_DU status=variable vmaxpu=1.5 vminpu=0.92
New Load.BT_IP5609_M2 bus1=BT279291.1.4 phases=1 conn=Wye model=3 kv=0.219393102 kw=0.070043 pf=0.92 daily=IP1_DU status=variable vmaxpu=1.5 vminpu=0.92
New Load.BT_IP5610_M1 bus1=BT345063.1.4 phases=1 conn=Wye model=2 kv=0.219393102 kw=0.070043 pf=0.92 daily=IP1_DU status=variable vmaxpu=1.5 vminpu=0.92
New Load.BT_IP5610_M2 bus1=BT345063.1.4 phases=1 conn=Wye model=3 kv=0.219393102 kw=0.070043 pf=0.92 daily=IP1_DU status=variable vmaxpu=1.5 vminpu=0.92
New Load.BT_IP5631_M1 bus1=BT784601.1.4 phases=1 conn=Wye model=2 kv=0.219393102 kw=0.070043 pf=0.92 daily=IP1_DU status=variable vmaxpu=1.5 vminpu=0.92
New Load.BT_IP5631_M2 bus1=BT784601.1.4 phases=1 conn=Wye model=3 kv=0.219393102 kw=0.070043 pf=0.92 daily=IP1_DU status=variable vmaxpu=1.5 vminpu=0.92
New Load.BT_IP5632_M1 bus1=BT784591.1.4 phases=1 conn=Wye model=2 kv=0.219393102 kw=0.070043 pf=0.92 daily=IP1_DU status=variable vmaxpu=1.5 vminpu=0.92
New Load.BT_IP5632_M2 bus1=BT784591.1.4 phases=1 conn=Wye model=3 kv=0.219393102 kw=0.070043 pf=0.92 daily=IP1_DU status=variable vmaxpu=1.5 vminpu=0.92
New Load.BT_IP5633_M1 bus1=BT784581.1.4 phases=1 conn=Wye model=2 kv=0.219393102 kw=0.070043 pf=0.92 daily=IP1_DU status=variable vmaxpu=1.5 vminpu=0.92
New Load.BT_IP5633_M2 bus1=BT784581.1.4 phases=1 conn=Wye model=3 kv=0.219393102 kw=0.070043 pf=0.92 daily=IP1_DU status=variable vmaxpu=1.5 vminpu=0.92
New Load.BT_IP7846_M1 bus1=BT784571.1.4 phases=1 conn=Wye model=2 kv=0.219393102 kw=0.070043 pf=0.92 daily=IP1_DU status=variable vmaxpu=1.5 vminpu=0.92
New Load.BT_IP7846_M2 bus1=BT784571.1.4 phases=1 conn=Wye model=3 kv=0.219393102 kw=0.070043 pf=0.92 daily=IP1_DU status=variable vmaxpu=1.5 vminpu=0.92
New Load.BT_IP7849_M1 bus1=BT768581.1.4 phases=1 conn=Wye model=2 kv=0.219393102 kw=0.070043 pf=0.92 daily=IP1_DU status=variable vmaxpu=1.5 vminpu=0.92
New Load.BT_IP7849_M2 bus1=BT768581.1.4 phases=1 conn=Wye model=3 kv=0.219393102 kw=0.070043 pf=0.92 daily=IP1_DU status=variable vmaxpu=1.5 vminpu=0.92
New Load.BT_IP5660_M1 bus1=BT278661.1.4 phases=1 conn=Wye model=2 kv=0.219393102 kw=0.070043 pf=0.92 daily=IP1_DU status=variable vmaxpu=1.5 vminpu=0.92
New Load.BT_IP5660_M2 bus1=BT278661.1.4 phases=1 conn=Wye model=3 kv=0.219393102 kw=0.070043 pf=0.92 daily=IP1_DU status=variable vmaxpu=1.5 vminpu=0.92
New Load.BT_IP1107_M1 bus1=BT297591.1.4 phases=1 conn=Wye model=2 kv=0.219393102 kw=0.0801295 pf=0.92 daily=IP1_DU status=variable vmaxpu=1.5 vminpu=0.92
New Load.BT_IP1107_M2 bus1=BT297591.1.4 phases=1 conn=Wye model=3 kv=0.219393102 kw=0.0801295 pf=0.92 daily=IP1_DU status=variable vmaxpu=1.5 vminpu=0.92
New Load.BT_IP1108_M1 bus1=BT297561.1.4 phases=1 conn=Wye model=2 kv=0.219393102 kw=0.070043 pf=0.92 daily=IP1_DU status=variable vmaxpu=1.5 vminpu=0.92
New Load.BT_IP1108_M2 bus1=BT297561.1.4 phases=1 conn=Wye model=3 kv=0.219393102 kw=0.070043 pf=0.92 daily=IP1_DU status=variable vmaxpu=1.5 vminpu=0.92
New Load.BT_IP1109_M1 bus1=BT297551.1.4 phases=1 conn=Wye model=2 kv=0.219393102 kw=0.0801295 pf=0.92 daily=IP1_DU status=variable vmaxpu=1.5 vminpu=0.92
New Load.BT_IP1109_M2 bus1=BT297551.1.4 phases=1 conn=Wye model=3 kv=0.219393102 kw=0.0801295 pf=0.92 daily=IP1_DU status=variable vmaxpu=1.5 vminpu=0.92
New Load.BT_IP1110_M1 bus1=BT297521.1.4 phases=1 conn=Wye model=2 kv=0.219393102 kw=0.070043 pf=0.92 daily=IP1_DU status=variable vmaxpu=1.5 vminpu=0.92
New Load.BT_IP1110_M2 bus1=BT297521.1.4 phases=1 conn=Wye model=3 kv=0.219393102 kw=0.070043 pf=0.92 daily=IP1_DU status=variable vmaxpu=1.5 vminpu=0.92
New Load.BT_IP1121_M1 bus1=BT297651.1.4 phases=1 conn=Wye model=2 kv=0.219393102 kw=0.070043 pf=0.92 daily=IP1_DU status=variable vmaxpu=1.5 vminpu=0.92
New Load.BT_IP1121_M2 bus1=BT297651.1.4 phases=1 conn=Wye model=3 kv=0.219393102 kw=0.070043 pf=0.92 daily=IP1_DU status=variable vmaxpu=1.5 vminpu=0.92
New Load.BT_IP1122_M1 bus1=BT297641.1.4 phases=1 conn=Wye model=2 kv=0.219393102 kw=0.070043 pf=0.92 daily=IP1_DU status=variable vmaxpu=1.5 vminpu=0.92
New Load.BT_IP1122_M2 bus1=BT297641.1.4 phases=1 conn=Wye model=3 kv=0.219393102 kw=0.070043 pf=0.92 daily=IP1_DU status=variable vmaxpu=1.5 vminpu=0.92
New Load.BT_IP1126_M1 bus1=BT278661.1.4 phases=1 conn=Wye model=2 kv=0.219393102 kw=0.204713 pf=0.92 daily=IP1_DU status=variable vmaxpu=1.5 vminpu=0.92
New Load.BT_IP1126_M2 bus1=BT278661.1.4 phases=1 conn=Wye model=3 kv=0.219393102 kw=0.204713 pf=0.92 daily=IP1_DU status=variable vmaxpu=1.5 vminpu=0.92
New Load.BT_IP1127_M1 bus1=BT278651.1.4 phases=1 conn=Wye model=2 kv=0.219393102 kw=0.070043 pf=0.92 daily=IP1_DU status=variable vmaxpu=1.5 vminpu=0.92
New Load.BT_IP1127_M2 bus1=BT278651.1.4 phases=1 conn=Wye model=3 kv=0.219393102 kw=0.070043 pf=0.92 daily=IP1_DU status=variable vmaxpu=1.5 vminpu=0.92
New Load.BT_IP1134_M1 bus1=BT297671.1.4 phases=1 conn=Wye model=2 kv=0.219393102 kw=0.070043 pf=0.92 daily=IP1_DU status=variable vmaxpu=1.5 vminpu=0.92
New Load.BT_IP1134_M2 bus1=BT297671.1.4 phases=1 conn=Wye model=3 kv=0.219393102 kw=0.070043 pf=0.92 daily=IP1_DU status=variable vmaxpu=1.5 vminpu=0.92
New Load.BT_IP1135_M1 bus1=BT297682.1.4 phases=1 conn=Wye model=2 kv=0.219393102 kw=0.070043 pf=0.92 daily=IP1_DU status=variable vmaxpu=1.5 vminpu=0.92
New Load.BT_IP1135_M2 bus1=BT297682.1.4 phases=1 conn=Wye model=3 kv=0.219393102 kw=0.070043 pf=0.92 daily=IP1_DU status=variable vmaxpu=1.5 vminpu=0.92
New Load.BT_1738043_M1 bus1=UC1738043.3.4 phases=1 conn=Wye model=2 kv=0.219393102 kw=0.211538 pf=0.92 daily=RE3_DU status=variable vmaxpu=1.5 vminpu=0.92
New Load.BT_1738043_M2 bus1=UC1738043.3.4 phases=1 conn=Wye model=3 kv=0.219393102 kw=0.211538 pf=0.92 daily=RE3_DU status=variable vmaxpu=1.5 vminpu=0.92
New Load.BT_1736581_M1 bus1=UC1736581.2.4 phases=1 conn=Wye model=2 kv=0.219393102 kw=0.108033 pf=0.92 daily=RE7_DU status=variable vmaxpu=1.5 vminpu=0.92
New Load.BT_1736581_M2 bus1=UC1736581.2.4 phases=1 conn=Wye model=3 kv=0.219393102 kw=0.108033 pf=0.92 daily=RE7_DU status=variable vmaxpu=1.5 vminpu=0.92
New Load.BT_1734371_M1 bus1=UC1734371.1.2.4 phases=1 conn=Delta model=2 kv=0.38 kw=0.2272135 pf=0.92 daily=RE4_DU status=variable vmaxpu=1.5 vminpu=0.92
New Load.BT_1734371_M2 bus1=UC1734371.1.2.4 phases=1 conn=Delta model=3 kv=0.38 kw=0.2272135 pf=0.92 daily=RE4_DU status=variable vmaxpu=1.5 vminpu=0.92
New Load.BT_1736183_M1 bus1=BT297631.2.4 phases=1 conn=Wye model=2 kv=0.219393102 kw=0.0512055 pf=0.92 daily=RE3_DU status=variable vmaxpu=1.5 vminpu=0.92
New Load.BT_1736183_M2 bus1=BT297631.2.4 phases=1 conn=Wye model=3 kv=0.219393102 kw=0.0512055 pf=0.92 daily=RE3_DU status=variable vmaxpu=1.5 vminpu=0.92
New Load.BT_1730748_M1 bus1=UC1730748.1.4 phases=1 conn=Wye model=2 kv=0.219393102 kw=0.2602085 pf=0.92 daily=RE7_DU status=variable vmaxpu=1.5 vminpu=0.92
New Load.BT_1730748_M2 bus1=UC1730748.1.4 phases=1 conn=Wye model=3 kv=0.219393102 kw=0.2602085 pf=0.92 daily=RE7_DU status=variable vmaxpu=1.5 vminpu=0.92
New Load.BT_1730751_M1 bus1=UC1730751.1.4 phases=1 conn=Wye model=2 kv=0.219393102 kw=0.3500925 pf=0.92 daily=RE1_DU status=variable vmaxpu=1.5 vminpu=0.92
New Load.BT_1730751_M2 bus1=UC1730751.1.4 phases=1 conn=Wye model=3 kv=0.219393102 kw=0.3500925 pf=0.92 daily=RE1_DU status=variable vmaxpu=1.5 vminpu=0.92
New Load.BT_1731331_M1 bus1=UC1731331.2.4 phases=1 conn=Wye model=2 kv=0.219393102 kw=0.226521 pf=0.92 daily=RE7_DU status=variable vmaxpu=1.5 vminpu=0.92
New Load.BT_1731331_M2 bus1=UC1731331.2.4 phases=1 conn=Wye model=3 kv=0.219393102 kw=0.226521 pf=0.92 daily=RE7_DU status=variable vmaxpu=1.5 vminpu=0.92
New Load.BT_1731654_M1 bus1=UC1731654.2.4 phases=1 conn=Wye model=2 kv=0.219393102 kw=0.520459 pf=0.92 daily=RE5_DU status=variable vmaxpu=1.5 vminpu=0.92
New Load.BT_1731654_M2 bus1=UC1731654.2.4 phases=1 conn=Wye model=3 kv=0.219393102 kw=0.520459 pf=0.92 daily=RE5_DU status=variable vmaxpu=1.5 vminpu=0.92
New Load.BT_1732556_M1 bus1=UC1732556.2.4 phases=1 conn=Wye model=2 kv=0.219393102 kw=0.661788 pf=0.92 daily=RE1_DU status=variable vmaxpu=1.5 vminpu=0.92
New Load.BT_1732556_M2 bus1=UC1732556.2.4 phases=1 conn=Wye model=3 kv=0.219393102 kw=0.661788 pf=0.92 daily=RE1_DU status=variable vmaxpu=1.5 vminpu=0.92
New Load.BT_1733467_M1 bus1=UC1733467.2.4 phases=1 conn=Wye model=2 kv=0.219393102 kw=0.2755565 pf=0.92 daily=RE1_DU status=variable vmaxpu=1.5 vminpu=0.92
New Load.BT_1733467_M2 bus1=UC1733467.2.4 phases=1 conn=Wye model=3 kv=0.219393102 kw=0.2755565 pf=0.92 daily=RE1_DU status=variable vmaxpu=1.5 vminpu=0.92
New Load.BT_1733696_M1 bus1=UC1733696.3.4 phases=1 conn=Wye model=2 kv=0.219393102 kw=0.261979 pf=0.92 daily=CO6_DU status=variable vmaxpu=1.5 vminpu=0.92
New Load.BT_1733696_M2 bus1=UC1733696.3.4 phases=1 conn=Wye model=3 kv=0.219393102 kw=0.261979 pf=0.92 daily=CO6_DU status=variable vmaxpu=1.5 vminpu=0.92
New Load.BT_1733699_M1 bus1=UC1733699.2.4 phases=1 conn=Wye model=2 kv=0.219393102 kw=0.193995 pf=0.92 daily=RE7_DU status=variable vmaxpu=1.5 vminpu=0.92
New Load.BT_1733699_M2 bus1=UC1733699.2.4 phases=1 conn=Wye model=3 kv=0.219393102 kw=0.193995 pf=0.92 daily=RE7_DU status=variable vmaxpu=1.5 vminpu=0.92
New Load.BT_1729800_M1 bus1=UC1729800.2.4 phases=1 conn=Wye model=2 kv=0.219393102 kw=0.195483 pf=0.92 daily=CO1_DU status=variable vmaxpu=1.5 vminpu=0.92
New Load.BT_1729800_M2 bus1=UC1729800.2.4 phases=1 conn=Wye model=3 kv=0.219393102 kw=0.195483 pf=0.92 daily=CO1_DU status=variable vmaxpu=1.5 vminpu=0.92
New Load.BT_1729833_M1 bus1=UC1729833.1.2.4 phases=1 conn=Delta model=2 kv=0.38 kw=0.433989 pf=0.92 daily=RE3_DU status=variable vmaxpu=1.5 vminpu=0.92
New Load.BT_1729833_M2 bus1=UC1729833.1.2.4 phases=1 conn=Delta model=3 kv=0.38 kw=0.433989 pf=0.92 daily=RE3_DU status=variable vmaxpu=1.5 vminpu=0.92
New Load.BT_1729931_M1 bus1=UC1729931.3.4 phases=1 conn=Wye model=2 kv=0.219393102 kw=0.0497545 pf=0.92 daily=RE4_DU status=variable vmaxpu=1.5 vminpu=0.92
New Load.BT_1729931_M2 bus1=UC1729931.3.4 phases=1 conn=Wye model=3 kv=0.219393102 kw=0.0497545 pf=0.92 daily=RE4_DU status=variable vmaxpu=1.5 vminpu=0.92
New Load.BT_1729938_M1 bus1=UC1729938.1.4 phases=1 conn=Wye model=2 kv=0.219393102 kw=0.051112 pf=0.92 daily=RE7_DU status=variable vmaxpu=1.5 vminpu=0.92
New Load.BT_1729938_M2 bus1=UC1729938.1.4 phases=1 conn=Wye model=3 kv=0.219393102 kw=0.051112 pf=0.92 daily=RE7_DU status=variable vmaxpu=1.5 vminpu=0.92
New Load.BT_1729012_M1 bus1=UC1729012.3.4 phases=1 conn=Wye model=2 kv=0.219393102 kw=0.202954 pf=0.92 daily=RE5_DU status=variable vmaxpu=1.5 vminpu=0.92
New Load.BT_1729012_M2 bus1=UC1729012.3.4 phases=1 conn=Wye model=3 kv=0.219393102 kw=0.202954 pf=0.92 daily=RE5_DU status=variable vmaxpu=1.5 vminpu=0.92
New Load.BT_1728314_M1 bus1=UC1728314.1.2.3.4 phases=3 conn=Delta model=2 kv=0.38 kw=0.2269955 pf=0.92 daily=RE1_DU status=variable vmaxpu=1.5 vminpu=0.92
New Load.BT_1728314_M2 bus1=UC1728314.1.2.3.4 phases=3 conn=Delta model=3 kv=0.38 kw=0.2269955 pf=0.92 daily=RE1_DU status=variable vmaxpu=1.5 vminpu=0.92
New Load.BT_1727540_M1 bus1=UC1727540.3.4 phases=1 conn=Wye model=2 kv=0.219393102 kw=0.0984185 pf=0.92 daily=RE6_DU status=variable vmaxpu=1.5 vminpu=0.92
New Load.BT_1727540_M2 bus1=UC1727540.3.4 phases=1 conn=Wye model=3 kv=0.219393102 kw=0.0984185 pf=0.92 daily=RE6_DU status=variable vmaxpu=1.5 vminpu=0.92
New Load.BT_1727796_M1 bus1=UC1727796.3.4 phases=1 conn=Wye model=2 kv=0.219393102 kw=0.1456785 pf=0.92 daily=RE5_DU status=variable vmaxpu=1.5 vminpu=0.92
New Load.BT_1727796_M2 bus1=UC1727796.3.4 phases=1 conn=Wye model=3 kv=0.219393102 kw=0.1456785 pf=0.92 daily=RE5_DU status=variable vmaxpu=1.5 vminpu=0.92
New Load.BT_1728116_M1 bus1=UC1728116.1.4 phases=1 conn=Wye model=2 kv=0.219393102 kw=0.2495325 pf=0.92 daily=RE8_DU status=variable vmaxpu=1.5 vminpu=0.92
New Load.BT_1728116_M2 bus1=UC1728116.1.4 phases=1 conn=Wye model=3 kv=0.219393102 kw=0.2495325 pf=0.92 daily=RE8_DU status=variable vmaxpu=1.5 vminpu=0.92
New Load.BT_1728131_M1 bus1=UC1728131.1.4 phases=1 conn=Wye model=2 kv=0.219393102 kw=0.1254575 pf=0.92 daily=RE7_DU status=variable vmaxpu=1.5 vminpu=0.92
New Load.BT_1728131_M2 bus1=UC1728131.1.4 phases=1 conn=Wye model=3 kv=0.219393102 kw=0.1254575 pf=0.92 daily=RE7_DU status=variable vmaxpu=1.5 vminpu=0.92
New Load.BT_1720852_M1 bus1=UC1720852.1.4 phases=1 conn=Wye model=2 kv=0.219393102 kw=0.199019 pf=0.92 daily=RE4_DU status=variable vmaxpu=1.5 vminpu=0.92
New Load.BT_1720852_M2 bus1=UC1720852.1.4 phases=1 conn=Wye model=3 kv=0.219393102 kw=0.199019 pf=0.92 daily=RE4_DU status=variable vmaxpu=1.5 vminpu=0.92
New Load.BT_1720065_M1 bus1=UC1720065.1.4 phases=1 conn=Wye model=2 kv=0.219393102 kw=0.454914 pf=0.92 daily=RE6_DU status=variable vmaxpu=1.5 vminpu=0.92
New Load.BT_1720065_M2 bus1=UC1720065.1.4 phases=1 conn=Wye model=3 kv=0.219393102 kw=0.454914 pf=0.92 daily=RE6_DU status=variable vmaxpu=1.5 vminpu=0.92
New Load.BT_1720066_M1 bus1=UC1720066.3.4 phases=1 conn=Wye model=2 kv=0.219393102 kw=0.1208785 pf=0.92 daily=RE3_DU status=variable vmaxpu=1.5 vminpu=0.92
New Load.BT_1720066_M2 bus1=UC1720066.3.4 phases=1 conn=Wye model=3 kv=0.219393102 kw=0.1208785 pf=0.92 daily=RE3_DU status=variable vmaxpu=1.5 vminpu=0.92
New Load.BT_1725498_M1 bus1=UC1725498.2.4 phases=1 conn=Wye model=2 kv=0.219393102 kw=0.1603325 pf=0.92 daily=RE3_DU status=variable vmaxpu=1.5 vminpu=0.92
New Load.BT_1725498_M2 bus1=UC1725498.2.4 phases=1 conn=Wye model=3 kv=0.219393102 kw=0.1603325 pf=0.92 daily=RE3_DU status=variable vmaxpu=1.5 vminpu=0.92
New Load.BT_1726271_M1 bus1=UC1726271.1.4 phases=1 conn=Wye model=2 kv=0.219393102 kw=0.3336915 pf=0.92 daily=RE5_DU status=variable vmaxpu=1.5 vminpu=0.92
New Load.BT_1726271_M2 bus1=UC1726271.1.4 phases=1 conn=Wye model=3 kv=0.219393102 kw=0.3336915 pf=0.92 daily=RE5_DU status=variable vmaxpu=1.5 vminpu=0.92
New Load.BT_1726584_M1 bus1=UC1726584.2.4 phases=1 conn=Wye model=2 kv=0.219393102 kw=0.2079345 pf=0.92 daily=RE5_DU status=variable vmaxpu=1.5 vminpu=0.92
New Load.BT_1726584_M2 bus1=UC1726584.2.4 phases=1 conn=Wye model=3 kv=0.219393102 kw=0.2079345 pf=0.92 daily=RE5_DU status=variable vmaxpu=1.5 vminpu=0.92
New Load.BT_1727002_M1 bus1=UC1727002.1.4 phases=1 conn=Wye model=2 kv=0.219393102 kw=0.1038865 pf=0.92 daily=RE6_DU status=variable vmaxpu=1.5 vminpu=0.92
New Load.BT_1727002_M2 bus1=UC1727002.1.4 phases=1 conn=Wye model=3 kv=0.219393102 kw=0.1038865 pf=0.92 daily=RE6_DU status=variable vmaxpu=1.5 vminpu=0.92
New Load.BT_1719215_M1 bus1=UC1719215.2.4 phases=1 conn=Wye model=2 kv=0.219393102 kw=0.1780515 pf=0.92 daily=RE5_DU status=variable vmaxpu=1.5 vminpu=0.92
New Load.BT_1719215_M2 bus1=UC1719215.2.4 phases=1 conn=Wye model=3 kv=0.219393102 kw=0.1780515 pf=0.92 daily=RE5_DU status=variable vmaxpu=1.5 vminpu=0.92
New Load.BT_1707654_M1 bus1=UC1707654.2.4 phases=1 conn=Wye model=2 kv=0.219393102 kw=0.6120975 pf=0.92 daily=RE1_DU status=variable vmaxpu=1.5 vminpu=0.92
New Load.BT_1707654_M2 bus1=UC1707654.2.4 phases=1 conn=Wye model=3 kv=0.219393102 kw=0.6120975 pf=0.92 daily=RE1_DU status=variable vmaxpu=1.5 vminpu=0.92
New Load.BT_1713660_M1 bus1=UC1713660.1.2.3.4 phases=3 conn=Delta model=2 kv=0.38 kw=0.8364595 pf=0.92 daily=IP1_DU status=variable vmaxpu=1.5 vminpu=0.92
New Load.BT_1713660_M2 bus1=UC1713660.1.2.3.4 phases=3 conn=Delta model=3 kv=0.38 kw=0.8364595 pf=0.92 daily=IP1_DU status=variable vmaxpu=1.5 vminpu=0.92
New Load.BT_1713664_M1 bus1=UC1713664.1.2.4 phases=1 conn=Delta model=2 kv=0.38 kw=0 pf=0.92 daily=PP3_DU status=variable vmaxpu=1.5 vminpu=0.92
New Load.BT_1713664_M2 bus1=UC1713664.1.2.4 phases=1 conn=Delta model=3 kv=0.38 kw=0 pf=0.92 daily=PP3_DU status=variable vmaxpu=1.5 vminpu=0.92
New Load.BT_1705035_M1 bus1=UC1705035.3.4 phases=1 conn=Wye model=2 kv=0.219393102 kw=0.278906 pf=0.92 daily=RE5_DU status=variable vmaxpu=1.5 vminpu=0.92
New Load.BT_1705035_M2 bus1=UC1705035.3.4 phases=1 conn=Wye model=3 kv=0.219393102 kw=0.278906 pf=0.92 daily=RE5_DU status=variable vmaxpu=1.5 vminpu=0.92
New Load.BT_1705008_M1 bus1=UC1705008.1.4 phases=1 conn=Wye model=2 kv=0.219393102 kw=0.1484145 pf=0.92 daily=RE8_DU status=variable vmaxpu=1.5 vminpu=0.92
New Load.BT_1705008_M2 bus1=UC1705008.1.4 phases=1 conn=Wye model=3 kv=0.219393102 kw=0.1484145 pf=0.92 daily=RE8_DU status=variable vmaxpu=1.5 vminpu=0.92
New Load.BT_1704935_M1 bus1=UC1704935.1.4 phases=1 conn=Wye model=2 kv=0.219393102 kw=0.140972 pf=0.92 daily=RE4_DU status=variable vmaxpu=1.5 vminpu=0.92
New Load.BT_1704935_M2 bus1=UC1704935.1.4 phases=1 conn=Wye model=3 kv=0.219393102 kw=0.140972 pf=0.92 daily=RE4_DU status=variable vmaxpu=1.5 vminpu=0.92
New Load.BT_1704896_M1 bus1=UC1704896.1.2.3.4 phases=3 conn=Delta model=2 kv=0.38 kw=0.21039 pf=0.92 daily=RE8_DU status=variable vmaxpu=1.5 vminpu=0.92
New Load.BT_1704896_M2 bus1=UC1704896.1.2.3.4 phases=3 conn=Delta model=3 kv=0.38 kw=0.21039 pf=0.92 daily=RE8_DU status=variable vmaxpu=1.5 vminpu=0.92
New Load.BT_1704898_M1 bus1=UC1704898.2.4 phases=1 conn=Wye model=2 kv=0.219393102 kw=0.097325 pf=0.92 daily=RE6_DU status=variable vmaxpu=1.5 vminpu=0.92
New Load.BT_1704898_M2 bus1=UC1704898.2.4 phases=1 conn=Wye model=3 kv=0.219393102 kw=0.097325 pf=0.92 daily=RE6_DU status=variable vmaxpu=1.5 vminpu=0.92
New Load.BT_1704899_M1 bus1=UC1704899.1.2.3.4 phases=3 conn=Delta model=2 kv=0.38 kw=1.763603 pf=0.92 daily=IP1_DU status=variable vmaxpu=1.5 vminpu=0.92
New Load.BT_1704899_M2 bus1=UC1704899.1.2.3.4 phases=3 conn=Delta model=3 kv=0.38 kw=1.763603 pf=0.92 daily=IP1_DU status=variable vmaxpu=1.5 vminpu=0.92
New Load.BT_1704900_M1 bus1=UC1704900.1.4 phases=1 conn=Wye model=2 kv=0.219393102 kw=0.408806 pf=0.92 daily=RE3_DU status=variable vmaxpu=1.5 vminpu=0.92
New Load.BT_1704900_M2 bus1=UC1704900.1.4 phases=1 conn=Wye model=3 kv=0.219393102 kw=0.408806 pf=0.92 daily=RE3_DU status=variable vmaxpu=1.5 vminpu=0.92
New Load.BT_1704787_M1 bus1=UC1704787.1.4 phases=1 conn=Wye model=2 kv=0.219393102 kw=0.2416765 pf=0.92 daily=RE1_DU status=variable vmaxpu=1.5 vminpu=0.92
New Load.BT_1704787_M2 bus1=UC1704787.1.4 phases=1 conn=Wye model=3 kv=0.219393102 kw=0.2416765 pf=0.92 daily=RE1_DU status=variable vmaxpu=1.5 vminpu=0.92
New Load.BT_1704788_M1 bus1=UC1704788.3.4 phases=1 conn=Wye model=2 kv=0.219393102 kw=0.177732 pf=0.92 daily=RE7_DU status=variable vmaxpu=1.5 vminpu=0.92
New Load.BT_1704788_M2 bus1=UC1704788.3.4 phases=1 conn=Wye model=3 kv=0.219393102 kw=0.177732 pf=0.92 daily=RE7_DU status=variable vmaxpu=1.5 vminpu=0.92
New Load.BT_1704789_M1 bus1=UC1704789.2.4 phases=1 conn=Wye model=2 kv=0.219393102 kw=0.136649 pf=0.92 daily=RE1_DU status=variable vmaxpu=1.5 vminpu=0.92
New Load.BT_1704789_M2 bus1=UC1704789.2.4 phases=1 conn=Wye model=3 kv=0.219393102 kw=0.136649 pf=0.92 daily=RE1_DU status=variable vmaxpu=1.5 vminpu=0.92
New Load.BT_1704790_M1 bus1=UC1704790.3.4 phases=1 conn=Wye model=2 kv=0.219393102 kw=1.025372 pf=0.92 daily=RE2_DU status=variable vmaxpu=1.5 vminpu=0.92
New Load.BT_1704790_M2 bus1=UC1704790.3.4 phases=1 conn=Wye model=3 kv=0.219393102 kw=1.025372 pf=0.92 daily=RE2_DU status=variable vmaxpu=1.5 vminpu=0.92
New Load.BT_1704791_M1 bus1=UC1704791.2.4 phases=1 conn=Wye model=2 kv=0.219393102 kw=0.1768065 pf=0.92 daily=RE5_DU status=variable vmaxpu=1.5 vminpu=0.92
New Load.BT_1704791_M2 bus1=UC1704791.2.4 phases=1 conn=Wye model=3 kv=0.219393102 kw=0.1768065 pf=0.92 daily=RE5_DU status=variable vmaxpu=1.5 vminpu=0.92
New Load.BT_1704792_M1 bus1=UC1704792.2.4 phases=1 conn=Wye model=2 kv=0.219393102 kw=0.737181 pf=0.92 daily=RE8_DU status=variable vmaxpu=1.5 vminpu=0.92
New Load.BT_1704792_M2 bus1=UC1704792.2.4 phases=1 conn=Wye model=3 kv=0.219393102 kw=0.737181 pf=0.92 daily=RE8_DU status=variable vmaxpu=1.5 vminpu=0.92
New Load.BT_1704793_M1 bus1=UC1704793.2.4 phases=1 conn=Wye model=2 kv=0.219393102 kw=0.4439735 pf=0.92 daily=CO5_DU status=variable vmaxpu=1.5 vminpu=0.92
New Load.BT_1704793_M2 bus1=UC1704793.2.4 phases=1 conn=Wye model=3 kv=0.219393102 kw=0.4439735 pf=0.92 daily=CO5_DU status=variable vmaxpu=1.5 vminpu=0.92
New Load.BT_1704886_M1 bus1=UC1704886.2.4 phases=1 conn=Wye model=2 kv=0.219393102 kw=0.207341 pf=0.92 daily=RE3_DU status=variable vmaxpu=1.5 vminpu=0.92
New Load.BT_1704886_M2 bus1=UC1704886.2.4 phases=1 conn=Wye model=3 kv=0.219393102 kw=0.207341 pf=0.92 daily=RE3_DU status=variable vmaxpu=1.5 vminpu=0.92
New Load.BT_1704887_M1 bus1=UC1704887.1.4 phases=1 conn=Wye model=2 kv=0.219393102 kw=0.1755615 pf=0.92 daily=RE5_DU status=variable vmaxpu=1.5 vminpu=0.92
New Load.BT_1704887_M2 bus1=UC1704887.1.4 phases=1 conn=Wye model=3 kv=0.219393102 kw=0.1755615 pf=0.92 daily=RE5_DU status=variable vmaxpu=1.5 vminpu=0.92
New Load.BT_1704515_M1 bus1=UC1704515.1.4 phases=1 conn=Wye model=2 kv=0.219393102 kw=0.767945 pf=0.92 daily=RE1_DU status=variable vmaxpu=1.5 vminpu=0.92
New Load.BT_1704515_M2 bus1=UC1704515.1.4 phases=1 conn=Wye model=3 kv=0.219393102 kw=0.767945 pf=0.92 daily=RE1_DU status=variable vmaxpu=1.5 vminpu=0.92
New Load.BT_1701649_M1 bus1=UC1701649.1.4 phases=1 conn=Wye model=2 kv=0.219393102 kw=0.2079345 pf=0.92 daily=RE5_DU status=variable vmaxpu=1.5 vminpu=0.92
New Load.BT_1701649_M2 bus1=UC1701649.1.4 phases=1 conn=Wye model=3 kv=0.219393102 kw=0.2079345 pf=0.92 daily=RE5_DU status=variable vmaxpu=1.5 vminpu=0.92
New Load.BT_1703392_M1 bus1=UC1703392.3.4 phases=1 conn=Wye model=2 kv=0.219393102 kw=0.2512615 pf=0.92 daily=RE4_DU status=variable vmaxpu=1.5 vminpu=0.92
New Load.BT_1703392_M2 bus1=UC1703392.3.4 phases=1 conn=Wye model=3 kv=0.219393102 kw=0.2512615 pf=0.92 daily=RE4_DU status=variable vmaxpu=1.5 vminpu=0.92
New Load.BT_1704624_M1 bus1=UC1704624.3.4 phases=1 conn=Wye model=2 kv=0.219393102 kw=0.2236455 pf=0.92 daily=CO4_DU status=variable vmaxpu=1.5 vminpu=0.92
New Load.BT_1704624_M2 bus1=UC1704624.3.4 phases=1 conn=Wye model=3 kv=0.219393102 kw=0.2236455 pf=0.92 daily=CO4_DU status=variable vmaxpu=1.5 vminpu=0.92
New Load.BT_1704625_M1 bus1=UC1704625.1.2.3.4 phases=3 conn=Delta model=2 kv=0.38 kw=0.4359215 pf=0.92 daily=RE1_DU status=variable vmaxpu=1.5 vminpu=0.92
New Load.BT_1704625_M2 bus1=UC1704625.1.2.3.4 phases=3 conn=Delta model=3 kv=0.38 kw=0.4359215 pf=0.92 daily=RE1_DU status=variable vmaxpu=1.5 vminpu=0.92
...
